/*--------------------------------*- C++ -*----------------------------------*\
  =========                 |
| \\      /  F ield         | OpenFOAM: The Open Source CFD Toolbox           |
|  \\    /   O peration     | Version:  7.0                                   |
|   \\  /    A nd           | Website:  https://openfoam.org                  |
|    \\/     M anipulation  |                                                 |
\*---------------------------------------------------------------------------*/
FoamFile
{
    version     2.0;
    format      ascii;
    class       volScalarField;
    object      C;
}
// * * * * * * * * * * * * * * * * * * * * * * * * * * * * * * * * * * * * * //

dimensions      [0 0 0 0 0 0 0];

internalField   uniform 0;

boundaryField
{
    inlet_A
    {
        type            inletOutlet;
        inletValue      uniform 1;
        value           uniform 1;
    }
    
    inlet_B
    {
        type            inletOutlet;
        inletValue      uniform 0;
        value           uniform 0;
    }

    walls
    {
        type            zeroGradient;
    }
	
	axV
    {
        type            zeroGradient;
    }

    outlet
    {
        type            zeroGradient;
    }


}

// ************************************************************************* //
